*HEADING
cubit(ia1um_L10um_noouter_0.3shell_0.3size_XXXtets_adaptive.inp): 05/13/2024: 15
version: 2022.4
**
********************************** P A R T S **********************************
*PART, NAME=Part-Default
**
********************************** N O D E S **********************************
*NODE, NSET=ALLNODES
       1,    2.000000e-01,    0.000000e+00,   -5.000000e+00
       2,    1.680224e-01,   -1.084825e-01,   -5.000000e+00
       3,    8.365274e-02,   -1.816651e-01,   -5.000000e+00
       4,   -2.849069e-02,   -1.979603e-01,   -5.000000e+00
       5,   -1.310228e-01,   -1.511060e-01,   -5.000000e+00
       6,   -1.917793e-01,   -5.675128e-02,   -5.000000e+00
       7,   -1.917944e-01,    5.670018e-02,   -5.000000e+00
       8,   -1.309612e-01,    1.511594e-01,   -5.000000e+00
       9,   -2.853380e-02,    1.979541e-01,   -5.000000e+00
      10,    8.361942e-02,    1.816805e-01,   -5.000000e+00
      11,    1.680498e-01,    1.084401e-01,   -5.000000e+00
      12,    2.000000e-01,    0.000000e+00,    5.000000e+00
      13,    1.680172e-01,    1.084906e-01,    5.000000e+00
      14,    8.369681e-02,    1.816448e-01,    5.000000e+00
      15,   -2.841386e-02,    1.979713e-01,    5.000000e+00
      16,   -1.309734e-01,    1.511488e-01,    5.000000e+00
      17,   -1.917625e-01,    5.680807e-02,    5.000000e+00
      18,   -1.918088e-01,   -5.665139e-02,    5.000000e+00
      19,   -1.309938e-01,   -1.511312e-01,    5.000000e+00
      20,   -2.857565e-02,   -1.979481e-01,    5.000000e+00
** ... 2626 like lines cut
**
********************************** E L E M E N T S ****************************
*ELEMENT, TYPE=C3D4, ELSET=EB4
       1,     277,    1976,     294,    1977
       2,    1472,    1977,    1978,    1979
       3,     294,    1977,    1980,    1981
       4,    1472,    1557,    1977,    1979
       5,    1557,    1977,    1979,    1981
       6,    1558,    1557,    1979,    1981
       7,     356,     396,    1982,    1983
       8,    1836,    1983,    1984,    1985
       9,     384,     396,    1983,    1984
      10,     356,     370,    1983,    1986
      11,     370,    1985,    1983,    1986
      12,     853,    1987,     883,    1988
      13,     840,    1988,    1989,    1990
      14,    1634,    1988,    1991,    1992
      15,    1741,    1989,    1988,    1990
      16,    1741,    1988,    1987,    1990
      17,    1743,    1989,    1741,    1990
      18,     308,    1976,     322,    1980
      19,    1557,    1671,    1980,    1981
      20,     295,    1981,    1980,    1993
** ... 8603 like lines cut
*ELEMENT, TYPE=C3D4, ELSET=EB2
    8624,     631,     657,     656,     989
    8625,     989,     990,     991,     992
    8626,     989,     992,     991,     993
    8627,     631,     991,     632,     993
    8628,     664,     993,     992,     994
    8629,     658,     993,     664,     994
    8630,     632,     993,     991,     995
    8631,     492,     997,     996,     998
    8632,     463,    1000,     999,    1001
    8633,    1002,    1003,    1004,    1005
    8634,     463,     996,     490,    1000
    8635,     463,     464,     996,    1001
    8636,     490,     996,     997,    1000
    8637,     973,    1007,    1006,    1008
    8638,    1006,    1008,    1007,    1009
    8639,     959,    1006,     972,    1009
    8640,     961,     973,    1006,    1010
    8641,     909,     945,    1011,    1012
    8642,     945,    1011,    1012,    1013
    8643,     934,    1011,     945,    1014
** ... 4974 like lines cut
**
********************************** P R O P E R T I E S ************************
*SOLID SECTION, ELSET=EB4, MATERIAL=Default-Steel
*SOLID SECTION, ELSET=EB2, MATERIAL=Default-Steel
**
*END PART
**
**
**
********************************** E N D   P A R T S **********************************
**
**
********************************** A S S E M B L Y ************************************
**
*ASSEMBLY, NAME=ASSEMBLY1
**
*INSTANCE, NAME=Part-Default_1, PART=Part-Default
*END INSTANCE
**
*END ASSEMBLY
**
**
**
*MATERIAL, NAME = Default-Steel
*ELASTIC, TYPE=ISOTROPIC
2.068000e+05, 2.900000e-01
*DENSITY
7.000000e-06
*CONDUCTIVITY,TYPE=ISO
4.500000e-02
*SPECIFIC HEAT
5.000000e+02
**
**
************************************** H I S T O R Y *************************************
**
*PREPRINT
**
**************************************** S T E P 1 ***************************************
*STEP,INC=100,NAME=Default Set
**
*STATIC
1, 1, 1e-05, 1
**
**
**
**
*END STEP
